variable systemNsize equal 13
variable rndSeed equal 1234
variable Nrun equal 500000
variable Nstab equal 2000
variable NdumpStats equal 10
variable NdumpFrames equal 1000
variable Text equal 298.0
variable Pext equal 1.0

units real
    # g/mol, A, fs, Kcal/mol, K, atm, g/cm^3
atom_style full
read_data SPCE.data
  orthogonal box = (0 0 0) to (3.1 3.1 3.1)
  reading atoms ...
  3 atoms
  scanning bonds ...
  scanning angles ...
  reading bonds ...
  2 bonds
  reading angles ...
  1 angles

replicate 13 13 13
  orthogonal box = (0 0 0) to (40.3 40.3 40.3)
  6591 atoms
  4394 bonds
  2197 angles
  replicate CPU = 0.00172997 secs

include SPCE.long
# Original model from Berendsen et al, J Phys Chem 91:6269 (1987)
# Charges and geometry are specified in the ".data" file.

mass 1 1.00794 # H
mass 2 15.9994 # O

pair_style lj/cut/coul/long 10.0
    # LJ_Rcut (Coul_Rcut)
pair_modify tail yes
    # assumtions and approximations:
    # 1) 3d bulk homogeneous liquid (+)
    # 2) RDF is unity beyond the cutoff
    # 3) It's computed at the begining of the run
    # 4) atoms don't feel additional energy but it's added to the PE etc
kspace_style pppm 1.0e-5
    # accuracy - desired relative error in forces

pair_coeff 1 1 0.00000 0.000
pair_coeff 1 2 0.00000 0.000
    # TODO - I would put here the sizes of H and O atoms instead of one big LJ repulsion from the O atom. What "e" to choose is still a question.
pair_coeff 2 2 0.65 3.166
    # epsilon, sigma, [LJ_Rcut, [Coul_Rcut]]
    # distance between H and O is 1.0 so 3.166 > 1.0 accounts for the size of a molecule as a whole
    # I guess the major part in forces inside a molecule are indeed due to OH and HOH (angle) bondings, so computing LJ and Coul for them would be practically a waste of time so it may be ommitted. So I see only an optimizational reason to set LJ coefs to 0 for H atoms inside a molecule. However here (as far as I understand) we set all LJ coefs to 0. I understand LJ is a short-rage potential so its contribution can be neglegible compared to Coul, but it's not obvious for me why it actually is.
    # TODO - there might be a more correct way to ommit unnecessary interaction by using special_bond

bond_style harmonic
    # E = k(r-r0)^2
bond_coeff 1 0.0 1.0
    # bondID k r0
    # ? - how does k=0 make sense?
    # Is this to formaly bond atoms but actual bonding is done by rattle?

angle_style harmonic
angle_coeff 1 0.0 109.47
    # ? - same, how does k=0 make sense?

velocity all create 298 1234

fix removeMomentum all momentum 1 linear 1 1 1 angular
    # 1 - adjust the momentum every 1 timesteps
    # linear 1/0 1/0 1/0 - zero the P_x/y/z
    # angular - zero angular momentum (TODO - add "angular" here?)
    # scale - scale velocities after the adjustment so T is conserved (TODO - add "scale" here?)

fix stab_iso all npt temp 298 298 50 iso 1 1 $(500.0*dt)
fix stab_iso all npt temp 298 298 50 iso 1 1 500
    # Tstart,Tstop = external temperature at start/end of run
    # Tdamp = temperature damping parameter (time units)
    # temp - for thermostat, iso - for barostat

fix stab_constrain all rattle 1.0e-5 100 0 b 1 a 1
  find clusters CPU = 0.000285149 secs
    # fix ID group-ID shake tol iter N constraint1 value1 ...
    # iter - max # of iterations in each SHAKE solution
    # print SHAKE statistics every N many timesteps (0 = never)
    # b - bonds, a - angles
    # b 1 - bonds of type 1
    # a 1 - bonds of type 1
    # shake adds forces to make the displacement satisfy constraints - e.g. |r_ij|=d
    # rattle does the same and additionally it refines velocities - e.g. (|r|)'_t = 0.
    # *should be defined after other force- and v- modifiers since it doesn't account for them

thermo_style custom step density press temp
thermo 10
run 2000
PPPM initialization ...
  G vector (1/distance) = 0.306943
  grid = 36 36 36
  stencil order = 5
  estimated absolute RMS force accuracy = 0.00273639
  estimated relative force accuracy = 8.24055e-06
  3d grid and FFT values/proc = 20425 7776
  update every 1 steps, delay 10 steps, check yes
Step Density Press Temp
0    1.0041648    50495.342    297.40756
Averages over the last 101 of 201 rows, steps 1000 to 2000:
Density Press Temp
0.953592 -20.1333 298.08
Loop time of 25.1955 on 6 procs for 2000 steps with 6591 atoms

unfix stab_iso
unfix stab_constrain

reset_timestep 0
fix iso all npt temp 298 298 100 iso 1 1 $(1000.0*dt)
fix iso all npt temp 298 298 100 iso 1 1 1000
fix constrain all rattle 1.0e-5 100 0 b 1 a 1
  find clusters CPU = 0.000482798 secs

thermo_style custom step density etotal press temp
thermo_modify flush yes
    # insures the output is dumped in the file and not buffered or something
thermo 10
dump trj all atom 1000 wat.lammpstrj

run 500000
PPPM initialization ...
  G vector (1/distance) = 0.305759
  grid = 36 36 36
  stencil order = 5
  estimated absolute RMS force accuracy = 0.00287272
  estimated relative force accuracy = 8.65112e-06
  3d grid and FFT values/proc = 20425 7776
Step Density TotEng Press Temp
0   0.95606587   -20753.853   -177.21405    298.82068
Averages over the last 1009 of 2017 rows, steps 10080 to 20160:
Density TotEng Press Temp
0.957901 -20625.3 1.84387 298.439
