variable systemNsize equal 15
variable rndSeed equal 1234
variable Nrun equal 500000
variable Nstab equal 5000
variable NdumpStats equal 10
variable NdumpFrames equal 1000
variable Text equal 298.0
variable Pext equal 1.0

units real
    # g/mol, A, fs, Kcal/mol, K, atm, g/cm^3
atom_style full
read_data SPCE.data
  orthogonal box = (0 0 0) to (3.1 3.1 3.1)
  reading atoms ...
  3 atoms
  scanning bonds ...
  scanning angles ...
  reading bonds ...
  2 bonds
  reading angles ...
  1 angles

replicate 15 15 15
  orthogonal box = (0 0 0) to (46.5 46.5 46.5)
  10125 atoms
  6750 bonds
  3375 angles
  replicate CPU = 0.00699806 secs

include SPCE.pot
# Original model from Berendsen et al, J Phys Chem 91:6269 (1987)
# Charges and geometry are specified in the ".data" file.

mass 1 1.008 # H
mass 2 15.9994 # O

#pair_style lj/cut/coul/dsf 0.05 10.0
pair_style lj/cut/coul/long 12.0
    # LJ_Rcut (Coul_Rcut)
#pair_style lj/cut/tip4p/long 2 1 1 1 0.15 12.0

pair_modify tail yes
    # assumtions and approximations:
    # 1) 3d bulk homogeneous liquid (+)
    # 2) RDF is unity beyond the cutoff (?)
    # 3) It's computed at the begining of the run, so N of particles shouldn't be changed (+)
    # 4) atoms don't feel additional energy but it's added to the PE etc
#kspace_style pppm/tip4p 1.0e-5
kspace_style pppm 1.0e-5
    # accuracy - desired relative error in forces

pair_coeff 1 1 0.00000 0.000
pair_coeff 1 2 0.00000 0.000
    # TODO - I would put here the sizes of H and O atoms instead of one big LJ repulsion from the O atom. What "e" to choose is still a question.
pair_coeff 2 2 0.1550 3.1536
    # epsilon, sigma, [LJ_Rcut, [Coul_Rcut]]
    # distance between H and O is 1.0 so 3.166 > 1.0 accounts for the size of a molecule as a whole
    # I guess the major part in forces inside a molecule are indeed due to OH and HOH (angle) bondings, so computing LJ and Coul for them would be practically a waste of time so it may be ommitted. So I see only an optimizational reason to set LJ coefs to 0 for H atoms inside a molecule. However here (as far as I understand) we set all LJ coefs to 0. I understand LJ is a short-rage potential so its contribution can be neglegible compared to Coul, but it's not obvious for me why it actually is.
    # TODO - there might be a more correct way to ommit unnecessary interaction by using special_bond

bond_style harmonic
    # E = k(r-r0)^2
bond_coeff 1 0.0 1.0
    # bondID k r0
    # ? - how does k=0 make sense?
    # Is this to formaly bond atoms but actual bonding is done by rattle?

angle_style harmonic
angle_coeff 1 0.0 104.52
    # ? - same, how does k=0 make sense?

velocity all create 298 1234

fix removeMomentum all momentum 1 linear 1 1 1 angular
    # 1 - adjust the momentum every 1 timesteps
    # linear 1/0 1/0 1/0 - zero the P_x/y/z
    # angular - zero angular momentum (TODO - add "angular" here?)
    # scale - scale velocities after the adjustment so T is conserved (TODO - add "scale" here?)

fix stab_iso all npt temp 298 298 50 iso 1 1 $(500.0*dt)
fix stab_iso all npt temp 298 298 50 iso 1 1 500
    # Tstart,Tstop = external temperature at start/end of run
    # Tdamp = temperature damping parameter (time units)
    # temp - for thermostat, iso - for barostat

fix stab_constrain all rattle 1.0e-5 100 0 b 1 a 1
  find clusters CPU = 0.00110197 secs
    # fix ID group-ID shake tol iter N constraint1 value1 ...
    # iter - max # of iterations in each SHAKE solution
    # print SHAKE statistics every N many timesteps (0 = never)
    # b - bonds, a - angles
    # b 1 - bonds of type 1
    # a 1 - bonds of type 1
    # shake adds forces to make the displacement satisfy constraints - e.g. |r_ij|=d
    # rattle does the same and additionally it refines velocities - e.g. (|r|)'_t = 0.
    # *should be defined after other force- and v- modifiers since it doesn't account for them

thermo_style custom step density press temp
thermo 10
run 5000
PPPM initialization ...
  G vector (1/distance) = 0.250983
  grid = 32 32 32
  stencil order = 5
  estimated absolute RMS force accuracy = 0.00355268
  estimated relative force accuracy = 1.06988e-05
  3d grid and FFT values/proc = 25857 11264
  update every 1 steps, delay 10 steps, check yes
Step Density Press Temp
0    1.0041715    19543.944    299.41548
Averages over the last 251 of 501 rows, steps 2500 to 5000:
Density Press Temp
1.02686 -7.98097 298.021
Loop time of 376.045 on 3 procs for 5000 steps with 10125 atoms

unfix stab_iso
unfix stab_constrain

reset_timestep 0
fix iso all npt temp 298 298 100 iso 1 1 $(1000.0*dt)
fix iso all npt temp 298 298 100 iso 1 1 1000
fix constrain all rattle 1.0e-5 100 0 b 1 a 1
  find clusters CPU = 0.00128698 secs

thermo_style custom step density etotal press temp
thermo_modify flush yes
    # insures the output is dumped in the file and not buffered or something
thermo 10
dump trj all atom 1000 wat.lammpstrj

run 500000
PPPM initialization ...
  G vector (1/distance) = 0.251409
  grid = 32 32 32
  stencil order = 5
  estimated absolute RMS force accuracy = 0.00348027
  estimated relative force accuracy = 1.04807e-05
  3d grid and FFT values/proc = 25857 11264
Step Density TotEng Press Temp
0    1.0250928    -35332.41   -550.37801    297.06786
Averages over the last 6584 of 13167 rows, steps 65830 to 131660:
Density TotEng Press Temp
1.02712 -35317.6 0.864052 297.955
